%chk=MTN_PBE0_-0.90.chk
%mem=60GB
%nprocshared=12
#p gen 6d pbe1pbe

start preoptimized

0 2
 O                 -3.88498200    0.25824900    0.64670100
 N                 -2.56293100    0.02206900    0.47222100
 C                 -2.14783300   -1.26782900   -0.13723200
 C                 -0.90708300   -0.83079200   -0.87193900
 C                 -0.61880400    0.46197400   -0.67118800
 C                  0.59844500    1.13207600   -1.20568800
 S                  1.93586700    1.42816100    0.03328500
 C                 -1.67910600    1.16543500    0.14804100
 C                 -1.16933600    1.79111000    1.45531100
 C                 -2.47669900    2.19325400   -0.66061400
 C                 -3.28930100   -1.78274400   -1.03268000
 C                 -1.78944200   -2.29726400    0.95493100
 H                 -0.28643300   -1.53367400   -1.42221300
 H                  1.05508900    0.54594900   -2.01634200
 H                  0.39504800    2.14239500   -1.58336800
 H                 -0.55481500    1.08274000    2.02991900
 H                 -0.56498300    2.68526500    1.26476100
 H                 -2.03462800    2.08939100    2.06432200
 H                 -3.34299200    2.50573500   -0.07364600
 H                 -1.85788500    3.07393000   -0.87786900
 H                 -2.83039800    1.76446800   -1.60958600
 H                 -3.52388500   -1.07175800   -1.83276400
 H                 -3.01178400   -2.73613300   -1.48677600
 H                 -4.19436900   -1.91984800   -0.41223800
 H                 -2.66655100   -2.48881400    1.60217000
 H                 -1.47637700   -3.24521300    0.50076800
 H                 -0.95720900   -1.93165000    1.58459900
 S                  2.76512300   -0.54118800    0.11657600
 O                  2.34963200   -1.21949000    1.35942400
 O                  2.52083900   -1.20276200   -1.19725900
 C                  4.51008800   -0.14958000    0.26054600
 H                  4.64695200    0.47421800    1.14048700
 H                  5.01201300   -1.11398700    0.38330600
 H                  4.83039800    0.34711400   -0.65969500

@/home/malgo/Basis_sets/n07d_pbe0.gbs

