%chk=MTN_PBE0_0.60.chk
%mem=60GB
%nprocshared=12
#p gen 6d pbe1pbe

start preoptimized

0 2
 O                 -3.59998200    0.13824900    1.17170100
 N                 -2.66793100    0.05206900    0.26222100
 C                 -2.17783300   -1.26782900   -0.18223200
 C                 -0.84708300   -0.87579200   -0.75193900
 C                 -0.58880400    0.43197400   -0.64118800
 C                  0.61344500    1.11707600   -1.19068800
 S                  1.95086700    1.45816100    0.03328500
 C                 -1.70910600    1.16543500    0.07304100
 C                 -1.31933600    1.73111000    1.44031100
 C                 -2.35669900    2.25325400   -0.79561400
 C                 -3.10930100   -1.84274400   -1.25768000
 C                 -2.08944200   -2.20726400    1.02993100
 H                 -0.18143300   -1.59367400   -1.22721300
 H                  1.07008900    0.53094900   -1.98634200
 H                  0.38004800    2.11239500   -1.58336800
 H                 -0.80981500    0.97774000    2.04491900
 H                 -0.65498300    2.59526500    1.32476100
 H                 -2.22962800    2.04439100    1.95932200
 H                 -3.28299200    2.59573500   -0.31364600
 H                 -1.69288500    3.11893000   -0.90786900
 H                 -2.60539800    1.86946800   -1.78958600
 H                 -3.16388500   -1.17675800   -2.13276400
 H                 -2.74178400   -2.82613300   -1.59177600
 H                 -4.11936900   -1.96484800   -0.84723800
 H                 -3.08655100   -2.29381400    1.48217000
 H                 -1.74637700   -3.20021300    0.71076800
 H                 -1.39220900   -1.82665000    1.77959900
 S                  2.75012300   -0.52618800    0.10157600
 O                  2.31963200   -1.20449000    1.34442400
 O                  2.49083900   -1.15776200   -1.21225900
 C                  4.51008800   -0.19458000    0.23054600
 H                  4.67695200    0.41421800    1.12548700
 H                  4.98201300   -1.17398700    0.33830600
 H                  4.83039800    0.31711400   -0.67469500

@/home/malgo/Basis_sets/n07d_pbe0.gbs

