%chk=MTN_PBE0_-0.40.chk
%mem=60GB
%nprocshared=12
#p gen 6d pbe1pbe

start preoptimized

0 2
 O                 -3.78998200    0.21824900    0.82170100
 N                 -2.59793100    0.03206900    0.40222100
 C                 -2.15783300   -1.26782900   -0.15223200
 C                 -0.88708300   -0.84579200   -0.83193900
 C                 -0.60880400    0.45197400   -0.66118800
 C                  0.60344500    1.12707600   -1.20068800
 S                  1.94086700    1.43816100    0.03328500
 C                 -1.68910600    1.16543500    0.12304100
 C                 -1.21933600    1.77111000    1.45031100
 C                 -2.43669900    2.21325400   -0.70561400
 C                 -3.22930100   -1.80274400   -1.10768000
 C                 -1.88944200   -2.26726400    0.97993100
 H                 -0.25143300   -1.55367400   -1.35721300
 H                  1.06008900    0.54094900   -2.00634200
 H                  0.39004800    2.13239500   -1.58336800
 H                 -0.63981500    1.04774000    2.03491900
 H                 -0.59498300    2.65526500    1.28476100
 H                 -2.09962800    2.07439100    2.02932200
 H                 -3.32299200    2.53573500   -0.15364600
 H                 -1.80288500    3.08893000   -0.88786900
 H                 -2.75539800    1.79946800   -1.66958600
 H                 -3.40388500   -1.10675800   -1.93276400
 H                 -2.92178400   -2.76613300   -1.52177600
 H                 -4.16936900   -1.93484800   -0.55723800
 H                 -2.80655100   -2.42381400    1.56217000
 H                 -1.56637700   -3.23021300    0.57076800
 H                 -1.10220900   -1.89665000    1.64959900
 S                  2.76012300   -0.53618800    0.11157600
 O                  2.33963200   -1.21449000    1.35442400
 O                  2.51083900   -1.18776200   -1.20225900
 C                  4.51008800   -0.16458000    0.25054600
 H                  4.65695200    0.45421800    1.13548700
 H                  5.00201300   -1.13398700    0.36830600
 H                  4.83039800    0.33711400   -0.66469500

@/home/malgo/Basis_sets/n07d_pbe0.gbs

