%chk=MTN_PBE0_0.28.chk
%mem=60GB
%nprocshared=12
#p gen 6d pbe1pbe

start preoptimized

0 2
 O                 -3.66078200    0.16384900    1.05970100
 N                 -2.64553100    0.04566900    0.30702100
 C                 -2.17143300   -1.26782900   -0.17263200
 C                 -0.85988300   -0.86619200   -0.77753900
 C                 -0.59520400    0.43837400   -0.64758800
 C                  0.61024500    1.12027600   -1.19388800
 S                  1.94766700    1.45176100    0.03328500
 C                 -1.70270600    1.16543500    0.08904100
 C                 -1.28733600    1.74391000    1.44351100
 C                 -2.38229900    2.24045400   -0.76681400
 C                 -3.14770100   -1.82994400   -1.20968000
 C                 -2.02544200   -2.22646400    1.01393100
 H                 -0.20383300   -1.58087400   -1.26881300
 H                  1.06688900    0.53414900   -1.99274200
 H                  0.38324800    2.11879500   -1.58336800
 H                 -0.75541500    1.00014000    2.04171900
 H                 -0.63578300    2.61446500    1.31196100
 H                 -2.18802800    2.05399100    1.98172200
 H                 -3.29579200    2.57653500   -0.26244600
 H                 -1.72808500    3.10933000   -0.90146900
 H                 -2.65339800    1.84706800   -1.75118600
 H                 -3.24068500   -1.15435800   -2.06876400
 H                 -2.79938400   -2.80693300   -1.56937600
 H                 -4.13536900   -1.95524800   -0.75443800
 H                 -2.99695100   -2.33541400    1.50777000
 H                 -1.68877700   -3.20981300    0.66596800
 H                 -1.29940900   -1.84905000    1.73799900
 S                  2.75332300   -0.52938800    0.10477600
 O                  2.32603200   -1.20769000    1.34762400
 O                  2.49723900   -1.16736200   -1.20905900
 C                  4.51008800   -0.18498000    0.23694600
 H                  4.67055200    0.42701800    1.12868700
 H                  4.98841300   -1.16118700    0.34790600
 H                  4.83039800    0.32351400   -0.67149500

@/home/malgo/Basis_sets/n07d_pbe0.gbs

