%chk=MTN_PBE0_0.21.chk
%mem=60GB
%nprocshared=12
#p gen 6d pbe1pbe

start preoptimized

0 2
 O                 -3.67408200    0.16944900    1.03520100
 N                 -2.64063100    0.04426900    0.31682100
 C                 -2.17003300   -1.26782900   -0.17053200
 C                 -0.86268300   -0.86409200   -0.78313900
 C                 -0.59660400    0.43977400   -0.64898800
 C                  0.60954500    1.12097600   -1.19458800
 S                  1.94696700    1.45036100    0.03328500
 C                 -1.70130600    1.16543500    0.09254100
 C                 -1.28033600    1.74671000    1.44421100
 C                 -2.38789900    2.23765400   -0.76051400
 C                 -3.15610100   -1.82714400   -1.19918000
 C                 -2.01144200   -2.23066400    1.01043100
 H                 -0.20873300   -1.57807400   -1.27791300
 H                  1.06618900    0.53484900   -1.99414200
 H                  0.38394800    2.12019500   -1.58336800
 H                 -0.74351500    1.00504000    2.04101900
 H                 -0.63158300    2.61866500    1.30916100
 H                 -2.17892800    2.05609100    1.98662200
 H                 -3.29859200    2.57233500   -0.25124600
 H                 -1.73578500    3.10723000   -0.90006900
 H                 -2.66389800    1.84216800   -1.74278600
 H                 -3.25748500   -1.14945800   -2.05476400
 H                 -2.81198400   -2.80273300   -1.56447600
 H                 -4.13886900   -1.95314800   -0.73413800
 H                 -2.97735100   -2.34451400    1.51337000
 H                 -1.67617700   -3.21191300    0.65616800
 H                 -1.27910900   -1.85395000    1.72889900
 S                  2.75402300   -0.53008800    0.10547600
 O                  2.32743200   -1.20839000    1.34832400
 O                  2.49863900   -1.16946200   -1.20835900
 C                  4.51008800   -0.18288000    0.23834600
 H                  4.66915200    0.42981800    1.12938700
 H                  4.98981300   -1.15838700    0.35000600
 H                  4.83039800    0.32491400   -0.67079500

@/home/malgo/Basis_sets/n07d_pbe0.gbs

