%chk=MTN_PBE0_-0.50.chk
%mem=60GB
%nprocshared=12
#p gen 6d pbe1pbe

start preoptimized

0 2
 O                 -3.80898200    0.22624900    0.78670100
 N                 -2.59093100    0.03006900    0.41622100
 C                 -2.15583300   -1.26782900   -0.14923200
 C                 -0.89108300   -0.84279200   -0.83993900
 C                 -0.61080400    0.45397400   -0.66318800
 C                  0.60244500    1.12807600   -1.20168800
 S                  1.93986700    1.43616100    0.03328500
 C                 -1.68710600    1.16543500    0.12804100
 C                 -1.20933600    1.77511000    1.45131100
 C                 -2.44469900    2.20925400   -0.69661400
 C                 -3.24130100   -1.79874400   -1.09268000
 C                 -1.86944200   -2.27326400    0.97493100
 H                 -0.25843300   -1.54967400   -1.37021300
 H                  1.05908900    0.54194900   -2.00834200
 H                  0.39104800    2.13439500   -1.58336800
 H                 -0.62281500    1.05474000    2.03391900
 H                 -0.58898300    2.66126500    1.28076100
 H                 -2.08662800    2.07739100    2.03632200
 H                 -3.32699200    2.52973500   -0.13764600
 H                 -1.81388500    3.08593000   -0.88586900
 H                 -2.77039800    1.79246800   -1.65758600
 H                 -3.42788500   -1.09975800   -1.91276400
 H                 -2.93978400   -2.76013300   -1.51477600
 H                 -4.17436900   -1.93184800   -0.52823800
 H                 -2.77855100   -2.43681400    1.57017000
 H                 -1.54837700   -3.23321300    0.55676800
 H                 -1.07320900   -1.90365000    1.63659900
 S                  2.76112300   -0.53718800    0.11257600
 O                  2.34163200   -1.21549000    1.35542400
 O                  2.51283900   -1.19076200   -1.20125900
 C                  4.51008800   -0.16158000    0.25254600
 H                  4.65495200    0.45821800    1.13648700
 H                  5.00401300   -1.12998700    0.37130600
 H                  4.83039800    0.33911400   -0.66369500

@/home/malgo/Basis_sets/n07d_pbe0.gbs

