%chk=MTN_PBE0_-0.26.chk
%mem=60GB
%nprocshared=12
#p gen 6d pbe1pbe

start preoptimized

0 2
 O                 -3.76338200    0.20704900    0.87070100
 N                 -2.60773100    0.03486900    0.38262100
 C                 -2.16063300   -1.26782900   -0.15643200
 C                 -0.88148300   -0.84999200   -0.82073900
 C                 -0.60600400    0.44917400   -0.65838800
 C                  0.60484500    1.12567600   -1.19928800
 S                  1.94226700    1.44096100    0.03328500
 C                 -1.69190600    1.16543500    0.11604100
 C                 -1.23333600    1.76551000    1.44891100
 C                 -2.42549900    2.21885400   -0.71821400
 C                 -3.21250100   -1.80834400   -1.12868000
 C                 -1.91744200   -2.25886400    0.98693100
 H                 -0.24163300   -1.55927400   -1.33901300
 H                  1.06148900    0.53954900   -2.00354200
 H                  0.38864800    2.12959500   -1.58336800
 H                 -0.66361500    1.03794000    2.03631900
 H                 -0.60338300    2.64686500    1.29036100
 H                 -2.11782800    2.07019100    2.01952200
 H                 -3.31739200    2.54413500   -0.17604600
 H                 -1.78748500    3.09313000   -0.89066900
 H                 -2.73439800    1.80926800   -1.68638600
 H                 -3.37028500   -1.11655800   -1.96076400
 H                 -2.89658400   -2.77453300   -1.53157600
 H                 -4.16236900   -1.93904800   -0.59783800
 H                 -2.84575100   -2.40561400    1.55097000
 H                 -1.59157700   -3.22601300    0.59036800
 H                 -1.14280900   -1.88685000    1.66779900
 S                  2.75872300   -0.53478800    0.11017600
 O                  2.33683200   -1.21309000    1.35302400
 O                  2.50803900   -1.18356200   -1.20365900
 C                  4.51008800   -0.16878000    0.24774600
 H                  4.65975200    0.44861800    1.13408700
 H                  4.99921300   -1.13958700    0.36410600
 H                  4.83039800    0.33431400   -0.66609500

@/home/malgo/Basis_sets/n07d_pbe0.gbs

