%chk=MTN_PBE0_0.10.chk
%mem=60GB
%nprocshared=12
#p gen 6d pbe1pbe

start preoptimized

0 2
 O                 -3.69498200    0.17824900    0.99670100
 N                 -2.63293100    0.04206900    0.33222100
 C                 -2.16783300   -1.26782900   -0.16723200
 C                 -0.86708300   -0.86079200   -0.79193900
 C                 -0.59880400    0.44197400   -0.65118800
 C                  0.60844500    1.12207600   -1.19568800
 S                  1.94586700    1.44816100    0.03328500
 C                 -1.69910600    1.16543500    0.09804100
 C                 -1.26933600    1.75111000    1.44531100
 C                 -2.39669900    2.23325400   -0.75061400
 C                 -3.16930100   -1.82274400   -1.18268000
 C                 -1.98944200   -2.23726400    1.00493100
 H                 -0.21643300   -1.57367400   -1.29221300
 H                  1.06508900    0.53594900   -1.99634200
 H                  0.38504800    2.12239500   -1.58336800
 H                 -0.72481500    1.01274000    2.03991900
 H                 -0.62498300    2.62526500    1.30476100
 H                 -2.16462800    2.05939100    1.99432200
 H                 -3.30299200    2.56573500   -0.23364600
 H                 -1.74788500    3.10393000   -0.89786900
 H                 -2.68039800    1.83446800   -1.72958600
 H                 -3.28388500   -1.14175800   -2.03276400
 H                 -2.83178400   -2.79613300   -1.55677600
 H                 -4.14436900   -1.94984800   -0.70223800
 H                 -2.94655100   -2.35881400    1.52217000
 H                 -1.65637700   -3.21521300    0.64076800
 H                 -1.24720900   -1.86165000    1.71459900
 S                  2.75512300   -0.53118800    0.10657600
 O                  2.32963200   -1.20949000    1.34942400
 O                  2.50083900   -1.17276200   -1.20725900
 C                  4.51008800   -0.17958000    0.24054600
 H                  4.66695200    0.43421800    1.13048700
 H                  4.99201300   -1.15398700    0.35330600
 H                  4.83039800    0.32711400   -0.66969500

@/home/malgo/Basis_sets/n07d_pbe0.gbs

