%chk=MTN_PBE0_0.90.chk
%mem=60GB
%nprocshared=12
#p gen 6d pbe1pbe

start preoptimized

0 2
 O                 -3.54298200    0.11424900    1.27670100
 N                 -2.68893100    0.05806900    0.22022100
 C                 -2.18383300   -1.26782900   -0.19123200
 C                 -0.83508300   -0.88479200   -0.72793900
 C                 -0.58280400    0.42597400   -0.63518800
 C                  0.61644500    1.11407600   -1.18768800
 S                  1.95386700    1.46416100    0.03328500
 C                 -1.71510600    1.16543500    0.05804100
 C                 -1.34933600    1.71911000    1.43731100
 C                 -2.33269900    2.26525400   -0.82261400
 C                 -3.07330100   -1.85474400   -1.30268000
 C                 -2.14944200   -2.18926400    1.04493100
 H                 -0.16043300   -1.60567400   -1.18821300
 H                  1.07308900    0.52794900   -1.98034200
 H                  0.37704800    2.10639500   -1.58336800
 H                 -0.86081500    0.95674000    2.04791900
 H                 -0.67298300    2.57726500    1.33676100
 H                 -2.26862800    2.03539100    1.93832200
 H                 -3.27099200    2.61373500   -0.36164600
 H                 -1.65988500    3.12793000   -0.91386900
 H                 -2.56039800    1.89046800   -1.82558600
 H                 -3.09188500   -1.19775800   -2.19276400
 H                 -2.68778400   -2.84413300   -1.61277600
 H                 -4.10436900   -1.97384800   -0.93423800
 H                 -3.17055100   -2.25481400    1.45817000
 H                 -1.80037700   -3.19121300    0.75276800
 H                 -1.47920900   -1.80565000    1.81859900
 S                  2.74712300   -0.52318800    0.09857600
 O                  2.31363200   -1.20149000    1.34142400
 O                  2.48483900   -1.14876200   -1.21525900
 C                  4.51008800   -0.20358000    0.22454600
 H                  4.68295200    0.40221800    1.12248700
 H                  4.97601300   -1.18598700    0.32930600
 H                  4.83039800    0.31111400   -0.67769500

@/home/malgo/Basis_sets/n07d_pbe0.gbs

