%chk=MTN_PBE0_-0.22.chk
%mem=60GB
%nprocshared=12
#p gen 6d pbe1pbe

start preoptimized

0 2
 O                 -3.75578200    0.20384900    0.88470100
 N                 -2.61053100    0.03566900    0.37702100
 C                 -2.16143300   -1.26782900   -0.15763200
 C                 -0.87988300   -0.85119200   -0.81753900
 C                 -0.60520400    0.44837400   -0.65758800
 C                  0.60524500    1.12527600   -1.19888800
 S                  1.94266700    1.44176100    0.03328500
 C                 -1.69270600    1.16543500    0.11404100
 C                 -1.23733600    1.76391000    1.44851100
 C                 -2.42229900    2.22045400   -0.72181400
 C                 -3.20770100   -1.80994400   -1.13468000
 C                 -1.92544200   -2.25646400    0.98893100
 H                 -0.23883300   -1.56087400   -1.33381300
 H                  1.06188900    0.53914900   -2.00274200
 H                  0.38824800    2.12879500   -1.58336800
 H                 -0.67041500    1.03514000    2.03671900
 H                 -0.60578300    2.64446500    1.29196100
 H                 -2.12302800    2.06899100    2.01672200
 H                 -3.31579200    2.54653500   -0.18244600
 H                 -1.78308500    3.09433000   -0.89146900
 H                 -2.72839800    1.81206800   -1.69118600
 H                 -3.36068500   -1.11935800   -1.96876400
 H                 -2.88938400   -2.77693300   -1.53437600
 H                 -4.16036900   -1.94024800   -0.60943800
 H                 -2.85695100   -2.40041400    1.54777000
 H                 -1.59877700   -3.22481300    0.59596800
 H                 -1.15440900   -1.88405000    1.67299900
 S                  2.75832300   -0.53438800    0.10977600
 O                  2.33603200   -1.21269000    1.35262400
 O                  2.50723900   -1.18236200   -1.20405900
 C                  4.51008800   -0.16998000    0.24694600
 H                  4.66055200    0.44701800    1.13368700
 H                  4.99841300   -1.14118700    0.36290600
 H                  4.83039800    0.33351400   -0.66649500

@/home/malgo/Basis_sets/n07d_pbe0.gbs

