%chk=MTN_PBE0_0.00.chk
%mem=60GB
%nprocshared=12
#p gen 6d pbe1pbe

start preoptimized

0 2
 O                 -3.71398200    0.18624900    0.96170100
 N                 -2.62593100    0.04006900    0.34622100
 C                 -2.16583300   -1.26782900   -0.16423200
 C                 -0.87108300   -0.85779200   -0.79993900
 C                 -0.60080400    0.44397400   -0.65318800
 C                  0.60744500    1.12307600   -1.19668800
 S                  1.94486700    1.44616100    0.03328500
 C                 -1.69710600    1.16543500    0.10304100
 C                 -1.25933600    1.75511000    1.44631100
 C                 -2.40469900    2.22925400   -0.74161400
 C                 -3.18130100   -1.81874400   -1.16768000
 C                 -1.96944200   -2.24326400    0.99993100
 H                 -0.22343300   -1.56967400   -1.30521300
 H                  1.06408900    0.53694900   -1.99834200
 H                  0.38604800    2.12439500   -1.58336800
 H                 -0.70781500    1.01974000    2.03891900
 H                 -0.61898300    2.63126500    1.30076100
 H                 -2.15162800    2.06239100    2.00132200
 H                 -3.30699200    2.55973500   -0.21764600
 H                 -1.75888500    3.10093000   -0.89586900
 H                 -2.69539800    1.82746800   -1.71758600
 H                 -3.30788500   -1.13475800   -2.01276400
 H                 -2.84978400   -2.79013300   -1.54977600
 H                 -4.14936900   -1.94684800   -0.67323800
 H                 -2.91855100   -2.37181400    1.53017000
 H                 -1.63837700   -3.21821300    0.62676800
 H                 -1.21820900   -1.86865000    1.70159900
 S                  2.75612300   -0.53218800    0.10757600
 O                  2.33163200   -1.21049000    1.35042400
 O                  2.50283900   -1.17576200   -1.20625900
 C                  4.51008800   -0.17658000    0.24254600
 H                  4.66495200    0.43821800    1.13148700
 H                  4.99401300   -1.14998700    0.35630600
 H                  4.83039800    0.32911400   -0.66869500

@/home/malgo/Basis_sets/n07d_pbe0.gbs

