%chk=MTN_PBE0_0.23.chk
%mem=60GB
%nprocshared=12
#p gen 6d pbe1pbe

start preoptimized

0 2
 O                 -3.67028200    0.16784900    1.04220100
 N                 -2.64203100    0.04466900    0.31402100
 C                 -2.17043300   -1.26782900   -0.17113200
 C                 -0.86188300   -0.86469200   -0.78153900
 C                 -0.59620400    0.43937400   -0.64858800
 C                  0.60974500    1.12077600   -1.19438800
 S                  1.94716700    1.45076100    0.03328500
 C                 -1.70170600    1.16543500    0.09154100
 C                 -1.28233600    1.74591000    1.44401100
 C                 -2.38629900    2.23845400   -0.76231400
 C                 -3.15370100   -1.82794400   -1.20218000
 C                 -2.01544200   -2.22946400    1.01143100
 H                 -0.20733300   -1.57887400   -1.27531300
 H                  1.06638900    0.53464900   -1.99374200
 H                  0.38374800    2.11979500   -1.58336800
 H                 -0.74691500    1.00364000    2.04121900
 H                 -0.63278300    2.61746500    1.30996100
 H                 -2.18152800    2.05549100    1.98522200
 H                 -3.29779200    2.57353500   -0.25444600
 H                 -1.73358500    3.10783000   -0.90046900
 H                 -2.66089800    1.84356800   -1.74518600
 H                 -3.25268500   -1.15085800   -2.05876400
 H                 -2.80838400   -2.80393300   -1.56587600
 H                 -4.13786900   -1.95374800   -0.73993800
 H                 -2.98295100   -2.34191400    1.51177000
 H                 -1.67977700   -3.21131300    0.65896800
 H                 -1.28490900   -1.85255000    1.73149900
 S                  2.75382300   -0.52988800    0.10527600
 O                  2.32703200   -1.20819000    1.34812400
 O                  2.49823900   -1.16886200   -1.20855900
 C                  4.51008800   -0.18348000    0.23794600
 H                  4.66955200    0.42901800    1.12918700
 H                  4.98941300   -1.15918700    0.34940600
 H                  4.83039800    0.32451400   -0.67099500

@/home/malgo/Basis_sets/n07d_pbe0.gbs

