%chk=MTN_PBE0_-0.23.chk
%mem=60GB
%nprocshared=12
#p gen 6d pbe1pbe

start preoptimized

0 2
 O                 -3.75768200    0.20464900    0.88120100
 N                 -2.60983100    0.03546900    0.37842100
 C                 -2.16123300   -1.26782900   -0.15733200
 C                 -0.88028300   -0.85089200   -0.81833900
 C                 -0.60540400    0.44857400   -0.65778800
 C                  0.60514500    1.12537600   -1.19898800
 S                  1.94256700    1.44156100    0.03328500
 C                 -1.69250600    1.16543500    0.11454100
 C                 -1.23633600    1.76431000    1.44861100
 C                 -2.42309900    2.22005400   -0.72091400
 C                 -3.20890100   -1.80954400   -1.13318000
 C                 -1.92344200   -2.25706400    0.98843100
 H                 -0.23953300   -1.56047400   -1.33511300
 H                  1.06178900    0.53924900   -2.00294200
 H                  0.38834800    2.12899500   -1.58336800
 H                 -0.66871500    1.03584000    2.03661900
 H                 -0.60518300    2.64506500    1.29156100
 H                 -2.12172800    2.06929100    2.01742200
 H                 -3.31619200    2.54593500   -0.18084600
 H                 -1.78418500    3.09403000   -0.89126900
 H                 -2.72989800    1.81136800   -1.68998600
 H                 -3.36308500   -1.11865800   -1.96676400
 H                 -2.89118400   -2.77633300   -1.53367600
 H                 -4.16086900   -1.93994800   -0.60653800
 H                 -2.85415100   -2.40171400    1.54857000
 H                 -1.59697700   -3.22511300    0.59456800
 H                 -1.15150900   -1.88475000    1.67169900
 S                  2.75842300   -0.53448800    0.10987600
 O                  2.33623200   -1.21279000    1.35272400
 O                  2.50743900   -1.18266200   -1.20395900
 C                  4.51008800   -0.16968000    0.24714600
 H                  4.66035200    0.44741800    1.13378700
 H                  4.99861300   -1.14078700    0.36320600
 H                  4.83039800    0.33371400   -0.66639500

@/home/malgo/Basis_sets/n07d_pbe0.gbs

