%chk=MTN_PBE0_0.22.chk
%mem=60GB
%nprocshared=12
#p gen 6d pbe1pbe

start preoptimized

0 2
 O                 -3.67218200    0.16864900    1.03870100
 N                 -2.64133100    0.04446900    0.31542100
 C                 -2.17023300   -1.26782900   -0.17083200
 C                 -0.86228300   -0.86439200   -0.78233900
 C                 -0.59640400    0.43957400   -0.64878800
 C                  0.60964500    1.12087600   -1.19448800
 S                  1.94706700    1.45056100    0.03328500
 C                 -1.70150600    1.16543500    0.09204100
 C                 -1.28133600    1.74631000    1.44411100
 C                 -2.38709900    2.23805400   -0.76141400
 C                 -3.15490100   -1.82754400   -1.20068000
 C                 -2.01344200   -2.23006400    1.01093100
 H                 -0.20803300   -1.57847400   -1.27661300
 H                  1.06628900    0.53474900   -1.99394200
 H                  0.38384800    2.11999500   -1.58336800
 H                 -0.74521500    1.00434000    2.04111900
 H                 -0.63218300    2.61806500    1.30956100
 H                 -2.18022800    2.05579100    1.98592200
 H                 -3.29819200    2.57293500   -0.25284600
 H                 -1.73468500    3.10753000   -0.90026900
 H                 -2.66239800    1.84286800   -1.74398600
 H                 -3.25508500   -1.15015800   -2.05676400
 H                 -2.81018400   -2.80333300   -1.56517600
 H                 -4.13836900   -1.95344800   -0.73703800
 H                 -2.98015100   -2.34321400    1.51257000
 H                 -1.67797700   -3.21161300    0.65756800
 H                 -1.28200900   -1.85325000    1.73019900
 S                  2.75392300   -0.52998800    0.10537600
 O                  2.32723200   -1.20829000    1.34822400
 O                  2.49843900   -1.16916200   -1.20845900
 C                  4.51008800   -0.18318000    0.23814600
 H                  4.66935200    0.42941800    1.12928700
 H                  4.98961300   -1.15878700    0.34970600
 H                  4.83039800    0.32471400   -0.67089500

@/home/malgo/Basis_sets/n07d_pbe0.gbs

