%chk=MTN_PBE0_-0.70.chk
%mem=60GB
%nprocshared=12
#p gen 6d pbe1pbe

start preoptimized

0 2
 O                 -3.84698200    0.24224900    0.71670100
 N                 -2.57693100    0.02606900    0.44422100
 C                 -2.15183300   -1.26782900   -0.14323200
 C                 -0.89908300   -0.83679200   -0.85593900
 C                 -0.61480400    0.45797400   -0.66718800
 C                  0.60044500    1.13007600   -1.20368800
 S                  1.93786700    1.43216100    0.03328500
 C                 -1.68310600    1.16543500    0.13804100
 C                 -1.18933600    1.78311000    1.45331100
 C                 -2.46069900    2.20125400   -0.67861400
 C                 -3.26530100   -1.79074400   -1.06268000
 C                 -1.82944200   -2.28526400    0.96493100
 H                 -0.27243300   -1.54167400   -1.39621300
 H                  1.05708900    0.54394900   -2.01234200
 H                  0.39304800    2.13839500   -1.58336800
 H                 -0.58881500    1.06874000    2.03191900
 H                 -0.57698300    2.67326500    1.27276100
 H                 -2.06062800    2.08339100    2.05032200
 H                 -3.33499200    2.51773500   -0.10564600
 H                 -1.83588500    3.07993000   -0.88186900
 H                 -2.80039800    1.77846800   -1.63358600
 H                 -3.47588500   -1.08575800   -1.87276400
 H                 -2.97578400   -2.74813300   -1.50077600
 H                 -4.18436900   -1.92584800   -0.47023800
 H                 -2.72255100   -2.46281400    1.58617000
 H                 -1.51237700   -3.23921300    0.52876800
 H                 -1.01520900   -1.91765000    1.61059900
 S                  2.76312300   -0.53918800    0.11457600
 O                  2.34563200   -1.21749000    1.35742400
 O                  2.51683900   -1.19676200   -1.19925900
 C                  4.51008800   -0.15558000    0.25654600
 H                  4.65095200    0.46621800    1.13848700
 H                  5.00801300   -1.12198700    0.37730600
 H                  4.83039800    0.34311400   -0.66169500

@/home/malgo/Basis_sets/n07d_pbe0.gbs

