%chk=MTN_PBE0_-0.21.chk
%mem=60GB
%nprocshared=12
#p gen 6d pbe1pbe

start preoptimized

0 2
 O                 -3.75388200    0.20304900    0.88820100
 N                 -2.61123100    0.03586900    0.37562100
 C                 -2.16163300   -1.26782900   -0.15793200
 C                 -0.87948300   -0.85149200   -0.81673900
 C                 -0.60500400    0.44817400   -0.65738800
 C                  0.60534500    1.12517600   -1.19878800
 S                  1.94276700    1.44196100    0.03328500
 C                 -1.69290600    1.16543500    0.11354100
 C                 -1.23833600    1.76351000    1.44841100
 C                 -2.42149900    2.22085400   -0.72271400
 C                 -3.20650100   -1.81034400   -1.13618000
 C                 -1.92744200   -2.25586400    0.98943100
 H                 -0.23813300   -1.56127400   -1.33251300
 H                  1.06198900    0.53904900   -2.00254200
 H                  0.38814800    2.12859500   -1.58336800
 H                 -0.67211500    1.03444000    2.03681900
 H                 -0.60638300    2.64386500    1.29236100
 H                 -2.12432800    2.06869100    2.01602200
 H                 -3.31539200    2.54713500   -0.18404600
 H                 -1.78198500    3.09463000   -0.89166900
 H                 -2.72689800    1.81276800   -1.69238600
 H                 -3.35828500   -1.12005800   -1.97076400
 H                 -2.88758400   -2.77753300   -1.53507600
 H                 -4.15986900   -1.94054800   -0.61233800
 H                 -2.85975100   -2.39911400    1.54697000
 H                 -1.60057700   -3.22451300    0.59736800
 H                 -1.15730900   -1.88335000    1.67429900
 S                  2.75822300   -0.53428800    0.10967600
 O                  2.33583200   -1.21259000    1.35252400
 O                  2.50703900   -1.18206200   -1.20415900
 C                  4.51008800   -0.17028000    0.24674600
 H                  4.66075200    0.44661800    1.13358700
 H                  4.99821300   -1.14158700    0.36260600
 H                  4.83039800    0.33331400   -0.66659500

@/home/malgo/Basis_sets/n07d_pbe0.gbs

