%chk=MTN_PBE0_0.50.chk
%mem=60GB
%nprocshared=12
#p gen 6d pbe1pbe

start preoptimized

0 2
 O                 -3.61898200    0.14624900    1.13670100
 N                 -2.66093100    0.05006900    0.27622100
 C                 -2.17583300   -1.26782900   -0.17923200
 C                 -0.85108300   -0.87279200   -0.75993900
 C                 -0.59080400    0.43397400   -0.64318800
 C                  0.61244500    1.11807600   -1.19168800
 S                  1.94986700    1.45616100    0.03328500
 C                 -1.70710600    1.16543500    0.07804100
 C                 -1.30933600    1.73511000    1.44131100
 C                 -2.36469900    2.24925400   -0.78661400
 C                 -3.12130100   -1.83874400   -1.24268000
 C                 -2.06944200   -2.21326400    1.02493100
 H                 -0.18843300   -1.58967400   -1.24021300
 H                  1.06908900    0.53194900   -1.98834200
 H                  0.38104800    2.11439500   -1.58336800
 H                 -0.79281500    0.98474000    2.04391900
 H                 -0.64898300    2.60126500    1.32076100
 H                 -2.21662800    2.04739100    1.96632200
 H                 -3.28699200    2.58973500   -0.29764600
 H                 -1.70388500    3.11593000   -0.90586900
 H                 -2.62039800    1.86246800   -1.77758600
 H                 -3.18788500   -1.16975800   -2.11276400
 H                 -2.75978400   -2.82013300   -1.58477600
 H                 -4.12436900   -1.96184800   -0.81823800
 H                 -3.05855100   -2.30681400    1.49017000
 H                 -1.72837700   -3.20321300    0.69676800
 H                 -1.36320900   -1.83365000    1.76659900
 S                  2.75112300   -0.52718800    0.10257600
 O                  2.32163200   -1.20549000    1.34542400
 O                  2.49283900   -1.16076200   -1.21125900
 C                  4.51008800   -0.19158000    0.23254600
 H                  4.67495200    0.41821800    1.12648700
 H                  4.98401300   -1.16998700    0.34130600
 H                  4.83039800    0.31911400   -0.67369500

@/home/malgo/Basis_sets/n07d_pbe0.gbs

