%chk=MTN_PBE0_-0.30.chk
%mem=60GB
%nprocshared=12
#p gen 6d pbe1pbe

start preoptimized

0 2
 O                 -3.77098200    0.21024900    0.85670100
 N                 -2.60493100    0.03406900    0.38822100
 C                 -2.15983300   -1.26782900   -0.15523200
 C                 -0.88308300   -0.84879200   -0.82393900
 C                 -0.60680400    0.44997400   -0.65918800
 C                  0.60444500    1.12607600   -1.19968800
 S                  1.94186700    1.44016100    0.03328500
 C                 -1.69110600    1.16543500    0.11804100
 C                 -1.22933600    1.76711000    1.44931100
 C                 -2.42869900    2.21725400   -0.71461400
 C                 -3.21730100   -1.80674400   -1.12268000
 C                 -1.90944200   -2.26126400    0.98493100
 H                 -0.24443300   -1.55767400   -1.34421300
 H                  1.06108900    0.53994900   -2.00434200
 H                  0.38904800    2.13039500   -1.58336800
 H                 -0.65681500    1.04074000    2.03591900
 H                 -0.60098300    2.64926500    1.28876100
 H                 -2.11262800    2.07139100    2.02232200
 H                 -3.31899200    2.54173500   -0.16964600
 H                 -1.79188500    3.09193000   -0.88986900
 H                 -2.74039800    1.80646800   -1.68158600
 H                 -3.37988500   -1.11375800   -1.95276400
 H                 -2.90378400   -2.77213300   -1.52877600
 H                 -4.16436900   -1.93784800   -0.58623800
 H                 -2.83455100   -2.41081400    1.55417000
 H                 -1.58437700   -3.22721300    0.58476800
 H                 -1.13120900   -1.88965000    1.66259900
 S                  2.75912300   -0.53518800    0.11057600
 O                  2.33763200   -1.21349000    1.35342400
 O                  2.50883900   -1.18476200   -1.20325900
 C                  4.51008800   -0.16758000    0.24854600
 H                  4.65895200    0.45021800    1.13448700
 H                  5.00001300   -1.13798700    0.36530600
 H                  4.83039800    0.33511400   -0.66569500

@/home/malgo/Basis_sets/n07d_pbe0.gbs

