%chk=MTN_PBE0_0.30.chk
%mem=60GB
%nprocshared=12
#p gen 6d pbe1pbe

start preoptimized

0 2
 O                 -3.65698200    0.16224900    1.06670100
 N                 -2.64693100    0.04606900    0.30422100
 C                 -2.17183300   -1.26782900   -0.17323200
 C                 -0.85908300   -0.86679200   -0.77593900
 C                 -0.59480400    0.43797400   -0.64718800
 C                  0.61044500    1.12007600   -1.19368800
 S                  1.94786700    1.45216100    0.03328500
 C                 -1.70310600    1.16543500    0.08804100
 C                 -1.28933600    1.74311000    1.44331100
 C                 -2.38069900    2.24125400   -0.76861400
 C                 -3.14530100   -1.83074400   -1.21268000
 C                 -2.02944200   -2.22526400    1.01493100
 H                 -0.20243300   -1.58167400   -1.26621300
 H                  1.06708900    0.53394900   -1.99234200
 H                  0.38304800    2.11839500   -1.58336800
 H                 -0.75881500    0.99874000    2.04191900
 H                 -0.63698300    2.61326500    1.31276100
 H                 -2.19062800    2.05339100    1.98032200
 H                 -3.29499200    2.57773500   -0.26564600
 H                 -1.72588500    3.10993000   -0.90186900
 H                 -2.65039800    1.84846800   -1.75358600
 H                 -3.23588500   -1.15575800   -2.07276400
 H                 -2.79578400   -2.80813300   -1.57077600
 H                 -4.13436900   -1.95584800   -0.76023800
 H                 -3.00255100   -2.33281400    1.50617000
 H                 -1.69237700   -3.20921300    0.66876800
 H                 -1.30520900   -1.84765000    1.74059900
 S                  2.75312300   -0.52918800    0.10457600
 O                  2.32563200   -1.20749000    1.34742400
 O                  2.49683900   -1.16676200   -1.20925900
 C                  4.51008800   -0.18558000    0.23654600
 H                  4.67095200    0.42621800    1.12848700
 H                  4.98801300   -1.16198700    0.34730600
 H                  4.83039800    0.32311400   -0.67169500

@/home/malgo/Basis_sets/n07d_pbe0.gbs

