%chk=MTN_PBE0_-0.10.chk
%mem=60GB
%nprocshared=12
#p gen 6d pbe1pbe

start preoptimized

0 2
 O                 -3.73298200    0.19424900    0.92670100
 N                 -2.61893100    0.03806900    0.36022100
 C                 -2.16383300   -1.26782900   -0.16123200
 C                 -0.87508300   -0.85479200   -0.80793900
 C                 -0.60280400    0.44597400   -0.65518800
 C                  0.60644500    1.12407600   -1.19768800
 S                  1.94386700    1.44416100    0.03328500
 C                 -1.69510600    1.16543500    0.10804100
 C                 -1.24933600    1.75911000    1.44731100
 C                 -2.41269900    2.22525400   -0.73261400
 C                 -3.19330100   -1.81474400   -1.15268000
 C                 -1.94944200   -2.24926400    0.99493100
 H                 -0.23043300   -1.56567400   -1.31821300
 H                  1.06308900    0.53794900   -2.00034200
 H                  0.38704800    2.12639500   -1.58336800
 H                 -0.69081500    1.02674000    2.03791900
 H                 -0.61298300    2.63726500    1.29676100
 H                 -2.13862800    2.06539100    2.00832200
 H                 -3.31099200    2.55373500   -0.20164600
 H                 -1.76988500    3.09793000   -0.89386900
 H                 -2.71039800    1.82046800   -1.70558600
 H                 -3.33188500   -1.12775800   -1.99276400
 H                 -2.86778400   -2.78413300   -1.54277600
 H                 -4.15436900   -1.94384800   -0.64423800
 H                 -2.89055100   -2.38481400    1.53817000
 H                 -1.62037700   -3.22121300    0.61276800
 H                 -1.18920900   -1.87565000    1.68859900
 S                  2.75712300   -0.53318800    0.10857600
 O                  2.33363200   -1.21149000    1.35142400
 O                  2.50483900   -1.17876200   -1.20525900
 C                  4.51008800   -0.17358000    0.24454600
 H                  4.66295200    0.44221800    1.13248700
 H                  4.99601300   -1.14598700    0.35930600
 H                  4.83039800    0.33111400   -0.66769500

@/home/malgo/Basis_sets/n07d_pbe0.gbs

