%chk=MTN_PBE0_1.00.chk
%mem=60GB
%nprocshared=12
#p gen 6d pbe1pbe

start preoptimized

0 2
 O                 -3.52398200    0.10624900    1.31170100
 N                 -2.69593100    0.06006900    0.20622100
 C                 -2.18583300   -1.26782900   -0.19423200
 C                 -0.83108300   -0.88779200   -0.71993900
 C                 -0.58080400    0.42397400   -0.63318800
 C                  0.61744500    1.11307600   -1.18668800
 S                  1.95486700    1.46616100    0.03328500
 C                 -1.71710600    1.16543500    0.05304100
 C                 -1.35933600    1.71511000    1.43631100
 C                 -2.32469900    2.26925400   -0.83161400
 C                 -3.06130100   -1.85874400   -1.31768000
 C                 -2.16944200   -2.18326400    1.04993100
 H                 -0.15343300   -1.60967400   -1.17521300
 H                  1.07408900    0.52694900   -1.97834200
 H                  0.37604800    2.10439500   -1.58336800
 H                 -0.87781500    0.94974000    2.04891900
 H                 -0.67898300    2.57126500    1.34076100
 H                 -2.28162800    2.03239100    1.93132200
 H                 -3.26699200    2.61973500   -0.37764600
 H                 -1.64888500    3.13093000   -0.91586900
 H                 -2.54539800    1.89746800   -1.83758600
 H                 -3.06788500   -1.20475800   -2.21276400
 H                 -2.66978400   -2.85013300   -1.61977600
 H                 -4.09936900   -1.97684800   -0.96323800
 H                 -3.19855100   -2.24181400    1.45017000
 H                 -1.81837700   -3.18821300    0.76676800
 H                 -1.50820900   -1.79865000    1.83159900
 S                  2.74612300   -0.52218800    0.09757600
 O                  2.31163200   -1.20049000    1.34042400
 O                  2.48283900   -1.14576200   -1.21625900
 C                  4.51008800   -0.20658000    0.22254600
 H                  4.68495200    0.39821800    1.12148700
 H                  4.97401300   -1.18998700    0.32630600
 H                  4.83039800    0.30911400   -0.67869500

@/home/malgo/Basis_sets/n07d_pbe0.gbs

