%chk=MTN_PBE0_-0.80.chk
%mem=60GB
%nprocshared=12
#p gen 6d pbe1pbe

start preoptimized

0 2
 O                 -3.86598200    0.25024900    0.68170100
 N                 -2.56993100    0.02406900    0.45822100
 C                 -2.14983300   -1.26782900   -0.14023200
 C                 -0.90308300   -0.83379200   -0.86393900
 C                 -0.61680400    0.45997400   -0.66918800
 C                  0.59944500    1.13107600   -1.20468800
 S                  1.93686700    1.43016100    0.03328500
 C                 -1.68110600    1.16543500    0.14304100
 C                 -1.17933600    1.78711000    1.45431100
 C                 -2.46869900    2.19725400   -0.66961400
 C                 -3.27730100   -1.78674400   -1.04768000
 C                 -1.80944200   -2.29126400    0.95993100
 H                 -0.27943300   -1.53767400   -1.40921300
 H                  1.05608900    0.54494900   -2.01434200
 H                  0.39404800    2.14039500   -1.58336800
 H                 -0.57181500    1.07574000    2.03091900
 H                 -0.57098300    2.67926500    1.26876100
 H                 -2.04762800    2.08639100    2.05732200
 H                 -3.33899200    2.51173500   -0.08964600
 H                 -1.84688500    3.07693000   -0.87986900
 H                 -2.81539800    1.77146800   -1.62158600
 H                 -3.49988500   -1.07875800   -1.85276400
 H                 -2.99378400   -2.74213300   -1.49377600
 H                 -4.18936900   -1.92284800   -0.44123800
 H                 -2.69455100   -2.47581400    1.59417000
 H                 -1.49437700   -3.24221300    0.51476800
 H                 -0.98620900   -1.92465000    1.59759900
 S                  2.76412300   -0.54018800    0.11557600
 O                  2.34763200   -1.21849000    1.35842400
 O                  2.51883900   -1.19976200   -1.19825900
 C                  4.51008800   -0.15258000    0.25854600
 H                  4.64895200    0.47021800    1.13948700
 H                  5.01001300   -1.11798700    0.38030600
 H                  4.83039800    0.34511400   -0.66069500

@/home/malgo/Basis_sets/n07d_pbe0.gbs

