%chk=MTN_PBE0_0.25.chk
%mem=60GB
%nprocshared=12
#p gen 6d pbe1pbe

start preoptimized

0 2
 O                 -3.66648200    0.16624900    1.04920100
 N                 -2.64343100    0.04506900    0.31122100
 C                 -2.17083300   -1.26782900   -0.17173200
 C                 -0.86108300   -0.86529200   -0.77993900
 C                 -0.59580400    0.43897400   -0.64818800
 C                  0.60994500    1.12057600   -1.19418800
 S                  1.94736700    1.45116100    0.03328500
 C                 -1.70210600    1.16543500    0.09054100
 C                 -1.28433600    1.74511000    1.44381100
 C                 -2.38469900    2.23925400   -0.76411400
 C                 -3.15130100   -1.82874400   -1.20518000
 C                 -2.01944200   -2.22826400    1.01243100
 H                 -0.20593300   -1.57967400   -1.27271300
 H                  1.06658900    0.53444900   -1.99334200
 H                  0.38354800    2.11939500   -1.58336800
 H                 -0.75031500    1.00224000    2.04141900
 H                 -0.63398300    2.61626500    1.31076100
 H                 -2.18412800    2.05489100    1.98382200
 H                 -3.29699200    2.57473500   -0.25764600
 H                 -1.73138500    3.10843000   -0.90086900
 H                 -2.65789800    1.84496800   -1.74758600
 H                 -3.24788500   -1.15225800   -2.06276400
 H                 -2.80478400   -2.80513300   -1.56727600
 H                 -4.13686900   -1.95434800   -0.74573800
 H                 -2.98855100   -2.33931400    1.51017000
 H                 -1.68337700   -3.21071300    0.66176800
 H                 -1.29070900   -1.85115000    1.73409900
 S                  2.75362300   -0.52968800    0.10507600
 O                  2.32663200   -1.20799000    1.34792400
 O                  2.49783900   -1.16826200   -1.20875900
 C                  4.51008800   -0.18408000    0.23754600
 H                  4.66995200    0.42821800    1.12898700
 H                  4.98901300   -1.15998700    0.34880600
 H                  4.83039800    0.32411400   -0.67119500

@/home/malgo/Basis_sets/n07d_pbe0.gbs

