%chk=MTN_PBE0_0.70.chk
%mem=60GB
%nprocshared=12
#p gen 6d pbe1pbe

start preoptimized

0 2
 O                 -3.58098200    0.13024900    1.20670100
 N                 -2.67493100    0.05406900    0.24822100
 C                 -2.17983300   -1.26782900   -0.18523200
 C                 -0.84308300   -0.87879200   -0.74393900
 C                 -0.58680400    0.42997400   -0.63918800
 C                  0.61444500    1.11607600   -1.18968800
 S                  1.95186700    1.46016100    0.03328500
 C                 -1.71110600    1.16543500    0.06804100
 C                 -1.32933600    1.72711000    1.43931100
 C                 -2.34869900    2.25725400   -0.80461400
 C                 -3.09730100   -1.84674400   -1.27268000
 C                 -2.10944200   -2.20126400    1.03493100
 H                 -0.17443300   -1.59767400   -1.21421300
 H                  1.07108900    0.52994900   -1.98434200
 H                  0.37904800    2.11039500   -1.58336800
 H                 -0.82681500    0.97074000    2.04591900
 H                 -0.66098300    2.58926500    1.32876100
 H                 -2.24262800    2.04139100    1.95232200
 H                 -3.27899200    2.60173500   -0.32964600
 H                 -1.68188500    3.12193000   -0.90986900
 H                 -2.59039800    1.87646800   -1.80158600
 H                 -3.13988500   -1.18375800   -2.15276400
 H                 -2.72378400   -2.83213300   -1.59877600
 H                 -4.11436900   -1.96784800   -0.87623800
 H                 -3.11455100   -2.28081400    1.47417000
 H                 -1.76437700   -3.19721300    0.72476800
 H                 -1.42120900   -1.81965000    1.79259900
 S                  2.74912300   -0.52518800    0.10057600
 O                  2.31763200   -1.20349000    1.34342400
 O                  2.48883900   -1.15476200   -1.21325900
 C                  4.51008800   -0.19758000    0.22854600
 H                  4.67895200    0.41021800    1.12448700
 H                  4.98001300   -1.17798700    0.33530600
 H                  4.83039800    0.31511400   -0.67569500

@/home/malgo/Basis_sets/n07d_pbe0.gbs

