%chk=MTN_PBE0_-1.00.chk
%mem=60GB
%nprocshared=12
#p gen 6d pbe1pbe

start preoptimized

0 2
 O                 -3.90398200    0.26624900    0.61170100
 N                 -2.55593100    0.02006900    0.48622100
 C                 -2.14583300   -1.26782900   -0.13423200
 C                 -0.91108300   -0.82779200   -0.87993900
 C                 -0.62080400    0.46397400   -0.67318800
 C                  0.59744500    1.13307600   -1.20668800
 S                  1.93486700    1.42616100    0.03328500
 C                 -1.67710600    1.16543500    0.15304100
 C                 -1.15933600    1.79511000    1.45631100
 C                 -2.48469900    2.18925400   -0.65161400
 C                 -3.30130100   -1.77874400   -1.01768000
 C                 -1.76944200   -2.30326400    0.94993100
 H                 -0.29343300   -1.52967400   -1.43521300
 H                  1.05408900    0.54694900   -2.01834200
 H                  0.39604800    2.14439500   -1.58336800
 H                 -0.53781500    1.08974000    2.02891900
 H                 -0.55898300    2.69126500    1.26076100
 H                 -2.02162800    2.09239100    2.07132200
 H                 -3.34699200    2.49973500   -0.05764600
 H                 -1.86888500    3.07093000   -0.87586900
 H                 -2.84539800    1.75746800   -1.59758600
 H                 -3.54788500   -1.06475800   -1.81276400
 H                 -3.02978400   -2.73013300   -1.47977600
 H                 -4.19936900   -1.91684800   -0.38323800
 H                 -2.63855100   -2.50181400    1.61017000
 H                 -1.45837700   -3.24821300    0.48676800
 H                 -0.92820900   -1.93865000    1.57159900
 S                  2.76612300   -0.54218800    0.11757600
 O                  2.35163200   -1.22049000    1.36042400
 O                  2.52283900   -1.20576200   -1.19625900
 C                  4.51008800   -0.14658000    0.26254600
 H                  4.64495200    0.47821800    1.14148700
 H                  5.01401300   -1.10998700    0.38630600
 H                  4.83039800    0.34911400   -0.65869500

@/home/malgo/Basis_sets/n07d_pbe0.gbs

